Project: test project
version: v 0.1.0
new line.
